5426
  Marvin  12300703363D          

 29 31  0  0  1  0            999 V2000
    2.6846    1.7326    0.5810 O   0  0  0  0  0  0  0  0  0  0  0  0
    0.8331   -1.5782   -1.8751 O   0  0  0  0  0  0  0  0  0  0  0  0
   -0.2534    2.2037    0.2136 O   0  0  0  0  0  0  0  0  0  0  0  0
    2.8677   -0.3298    4.3687 O   0  0  0  0  0  0  0  0  0  0  0  0
    0.4920    0.1686   -0.4598 N   0  0  0  0  0  0  0  0  0  0  0  0
    2.7818    0.5704    2.3990 N   0  0  0  0  0  0  0  0  0  0  0  0
    1.3677   -0.2078    0.5938 C   0  0  2  0  0  0  0  0  0  0  0  0
    0.5191   -0.8833    1.7192 C   0  0  0  0  0  0  0  0  0  0  0  0
    1.4086   -1.3629    2.8954 C   0  0  0  0  0  0  0  0  0  0  0  0
    2.2979    0.7511    1.1971 C   0  0  0  0  0  0  0  0  0  0  0  0
    0.2055   -0.6060   -1.4740 C   0  0  0  0  0  0  0  0  0  0  0  0
   -0.3103    1.2030   -0.4872 C   0  0  0  0  0  0  0  0  0  0  0  0
   -0.9783   -0.2215   -2.0170 C   0  0  0  0  0  0  0  0  0  0  0  0
   -1.3074    0.9780   -1.3928 C   0  0  0  0  0  0  0  0  0  0  0  0
    2.3850   -0.3406    3.2464 C   0  0  0  0  0  0  0  0  0  0  0  0
   -1.8306   -0.8130   -2.9683 C   0  0  0  0  0  0  0  0  0  0  0  0
   -2.4964    1.6567   -1.7258 C   0  0  0  0  0  0  0  0  0  0  0  0
   -3.0392   -0.1595   -3.2817 C   0  0  0  0  0  0  0  0  0  0  0  0
   -3.3661    1.0714   -2.6711 C   0  0  0  0  0  0  0  0  0  0  0  0
    2.0599   -0.9822    0.2411 H   0  0  0  0  0  0  0  0  0  0  0  0
   -0.0467   -1.7313    1.3227 H   0  0  0  0  0  0  0  0  0  0  0  0
   -0.2122   -0.1658    2.1076 H   0  0  0  0  0  0  0  0  0  0  0  0
    1.9529   -2.2611    2.5917 H   0  0  0  0  0  0  0  0  0  0  0  0
    0.7726   -1.6300    3.7438 H   0  0  0  0  0  0  0  0  0  0  0  0
    3.4646    1.1448    2.6820 H   0  0  0  0  0  0  0  0  0  0  0  0
   -1.5883   -1.7043   -3.4067 H   0  0  0  0  0  0  0  0  0  0  0  0
   -2.7363    2.5451   -1.2806 H   0  0  0  0  0  0  0  0  0  0  0  0
   -3.6833   -0.5847   -3.9521 H   0  0  0  0  0  0  0  0  0  0  0  0
   -4.2442    1.5365   -2.9110 H   0  0  0  0  0  0  0  0  0  0  0  0
  1 10  2  0  0  0  0
  2 11  2  0  0  0  0
  3 12  2  0  0  0  0
  4 15  2  0  0  0  0
  5  7  1  0  0  0  0
  5 11  1  0  0  0  0
  5 12  1  0  0  0  0
  6 10  1  0  0  0  0
  6 15  1  0  0  0  0
  6 25  1  0  0  0  0
  7  8  1  0  0  0  0
  7 10  1  0  0  0  0
  7 20  1  0  0  0  0
  8  9  1  0  0  0  0
  8 21  1  0  0  0  0
  8 22  1  0  0  0  0
  9 15  1  0  0  0  0
  9 23  1  0  0  0  0
  9 24  1  0  0  0  0
 11 13  1  0  0  0  0
 12 14  1  0  0  0  0
 13 14  1  0  0  0  0
 13 16  2  0  0  0  0
 14 17  2  0  0  0  0
 16 18  1  0  0  0  0
 16 26  1  0  0  0  0
 17 19  1  0  0  0  0
 17 27  1  0  0  0  0
 18 19  2  0  0  0  0
 18 28  1  0  0  0  0
 19 29  1  0  0  0  0
M  END

> <PUBCHEM_BONDANNOTATIONS>
13  14  8
13  16  8
14  17  8
16  18  8
17  19  8
18  19  8
7  5  3

> <StdInChI>
InChI=1S/C13H10N2O4/c16-10-6-5-9(11(17)14-10)15-12(18)7-3-1-2-4-8(7)13(15)19/h1-4,9H,5-6H2,(H,14,16,17)/t9-/m1/s1

> <StdInChIKey>
UEJJHQNACJXSKW-SECBINFHSA-N

> <AuxInfo>
1/1/N:18,19,16,17,8,9,13,14,7,15,10,11,12,6,5,4,1,2,3/E:(1,2)(3,4)(7,8)(12,13)(18,19)/it:im/rA:29cOOOONNCCCCCCCCCCCCCHHHHHHHHHH/rB:;;;;;s5;s7;s8;d1s6s7;d2s5;d3s5;s11;s12s13;d4s6s9;d13;d14;s16;s17d18;s7;s8;s8;s9;s9;s6;s16;s17;s18;s19;/rC:2.6846,1.7326,.581;.8331,-1.5782,-1.8751;-.2534,2.2037,.2136;2.8677,-.3298,4.3687;.492,.1686,-.4598;2.7818,.5704,2.399;1.3677,-.2078,.5938;.5191,-.8833,1.7192;1.4086,-1.3629,2.8954;2.2979,.7511,1.1971;.2055,-.606,-1.474;-.3103,1.203,-.4872;-.9783,-.2215,-2.017;-1.3074,.978,-1.3928;2.385,-.3406,3.2464;-1.8306,-.813,-2.9683;-2.4964,1.6567,-1.7258;-3.0392,-.1595,-3.2817;-3.3661,1.0714,-2.6711;2.0599,-.9822,.2411;-.0467,-1.7313,1.3227;-.2122,-.1658,2.1076;1.9529,-2.2611,2.5917;.7726,-1.63,3.7438;3.4646,1.1448,2.682;-1.5883,-1.7043,-3.4067;-2.7363,2.5451,-1.2806;-3.6833,-.5847,-3.9521;-4.2442,1.5365,-2.911;

> <Formula>
C13 H10 N2 O4

> <Mw>
258.2295

> <SMILES>
O=C1[C@@]([H])(C([H])([H])C([H])([H])C(N1[H])=O)N1C(C2=C([H])C([H])=C([H])C([H])=C2C1=O)=O

> <CSID>
5233

$$$$
