6140
  Marvin  12300703363D          

 23 23  0  0  1  0            999 V2000
   -1.7507   -0.8008    2.7037 O   0  0  0  0  0  0  0  0  0  0  0  0
   -2.1828    0.3979    1.0938 O   0  0  0  0  0  0  0  0  0  0  0  0
   -1.4308   -2.7637    0.6457 N   0  0  0  0  0  0  0  0  0  0  0  0
   -0.4522   -1.0028   -0.7839 C   0  0  0  0  0  0  0  0  0  0  0  0
   -0.7655   -1.4521    0.6764 C   0  0  1  0  0  0  0  0  0  0  0  0
    0.3276    0.2642   -0.8619 C   0  0  0  0  0  0  0  0  0  0  0  0
    1.7410    0.2613   -0.7912 C   0  0  0  0  0  0  0  0  0  0  0  0
   -0.3311    1.5124   -0.9633 C   0  0  0  0  0  0  0  0  0  0  0  0
   -1.5884   -0.5841    1.5083 C   0  0  0  0  0  0  0  0  0  0  0  0
    2.4673    1.4689   -0.7673 C   0  0  0  0  0  0  0  0  0  0  0  0
    0.3839    2.7207   -0.9022 C   0  0  0  0  0  0  0  0  0  0  0  0
    1.7856    2.6985   -0.8000 C   0  0  0  0  0  0  0  0  0  0  0  0
    0.1089   -1.7965   -1.2879 H   0  0  0  0  0  0  0  0  0  0  0  0
   -1.3837   -0.9176   -1.3510 H   0  0  0  0  0  0  0  0  0  0  0  0
    0.1913   -1.5956    1.1877 H   0  0  0  0  0  0  0  0  0  0  0  0
    2.2596   -0.6193   -0.7484 H   0  0  0  0  0  0  0  0  0  0  0  0
   -1.3479    1.5597   -1.0644 H   0  0  0  0  0  0  0  0  0  0  0  0
   -0.7955   -3.4235    0.1925 H   0  0  0  0  0  0  0  0  0  0  0  0
   -1.5363   -3.0754    1.6140 H   0  0  0  0  0  0  0  0  0  0  0  0
    3.4879    1.4536   -0.7176 H   0  0  0  0  0  0  0  0  0  0  0  0
   -0.1161    3.6125   -0.9269 H   0  0  0  0  0  0  0  0  0  0  0  0
    2.3067    3.5764   -0.7516 H   0  0  0  0  0  0  0  0  0  0  0  0
   -1.3787   -1.4947    3.0956 H   0  0  0  0  0  0  0  0  0  0  0  0
  1  9  1  0  0  0  0
  1 23  1  0  0  0  0
  2  9  2  0  0  0  0
  5  3  1  0  0  0  0
  3 18  1  0  0  0  0
  3 19  1  0  0  0  0
  4  5  1  0  0  0  0
  4  6  1  0  0  0  0
  4 13  1  0  0  0  0
  4 14  1  0  0  0  0
  5  9  1  0  0  0  0
  5 15  1  0  0  0  0
  6  7  2  0  0  0  0
  6  8  1  0  0  0  0
  7 10  1  0  0  0  0
  7 16  1  0  0  0  0
  8 11  2  0  0  0  0
  8 17  1  0  0  0  0
 10 12  2  0  0  0  0
 10 20  1  0  0  0  0
 11 12  1  0  0  0  0
 11 21  1  0  0  0  0
 12 22  1  0  0  0  0
M  END

> <PUBCHEM_BONDANNOTATIONS>
10  12  8
11  12  8
5  3  5
6  7  8
6  8  8
7  10  8
8  11  8

> <StdInChI>
InChI=1S/C9H11NO2/c10-8(9(11)12)6-7-4-2-1-3-5-7/h1-5,8H,6,10H2,(H,11,12)/t8-/m0/s1

> <StdInChIKey>
COLNVLDHVKWLRT-QMMMGPOBSA-N

> <AuxInfo>
1/1/N:12,10,11,7,8,4,6,5,9,3,1,2/E:(2,3)(4,5)(11,12)/it:im/rA:23cOONCCCCCCCCCHHHHHHHHHHH/rB:;;;s3s4;s4;d6;s6;s1d2s5;s7;d8;d10s11;s4;s4;s5;s7;s8;s3;s3;s10;s11;s12;s1;/rC:-1.7507,-.8008,2.7037;-2.1828,.3979,1.0938;-1.4308,-2.7637,.6457;-.4522,-1.0028,-.7839;-.7655,-1.4521,.6764;.3276,.2642,-.8619;1.741,.2613,-.7912;-.3311,1.5124,-.9633;-1.5884,-.5841,1.5083;2.4673,1.4689,-.7673;.3839,2.7207,-.9022;1.7856,2.6985,-.8;.1089,-1.7965,-1.2879;-1.3837,-.9176,-1.351;.1913,-1.5956,1.1877;2.2596,-.6193,-.7484;-1.3479,1.5597,-1.0644;-.7955,-3.4235,.1925;-1.5363,-3.0754,1.614;3.4879,1.4536,-.7176;-.1161,3.6125,-.9269;2.3067,3.5764,-.7516;-1.3787,-1.4947,3.0956;

> <Formula>
C9 H11 N O2

> <Mw>
165.1891

> <SMILES>
O([H])C([C@]([H])(C([H])([H])C1C([H])=C([H])C([H])=C([H])C=1[H])N([H])[H])=O

> <CSID>
5910

$$$$
